Version 4
SHEET 1 972 1036
WIRE 160 112 160 64
WIRE 880 192 672 192
WIRE 160 240 160 192
WIRE 928 304 928 272
WIRE 112 320 -96 320
WIRE 928 416 928 384
WIRE -80 544 -208 544
FLAG -80 544 Entree
FLAG -96 320 Entree
FLAG 672 192 Entree
FLAG -288 544 0
FLAG 160 336 0
FLAG 928 176 0
FLAG 160 64 0
FLAG 928 416 0
SYMBOL nmos_3021 112 240 R0
SYMATTR InstName M1
SYMATTR Value ""
SYMBOL pmos_3021 880 272 M180
SYMATTR InstName M2
SYMATTR Value ""
SYMBOL voltage -192 544 R90
WINDOW 123 0 0 Left 0
WINDOW 39 0 0 Left 0
SYMATTR InstName V3
SYMATTR Value 15
SYMBOL Voltage 160 208 R180
WINDOW 0 24 96 Left 2
WINDOW 3 24 16 Left 2
SYMATTR InstName V1
SYMBOL Voltage 928 400 R180
WINDOW 0 24 96 Left 2
WINDOW 3 24 16 Left 2
SYMATTR InstName V2
TEXT -328 -120 Left 2 !.dc V3 -20 20 0.1
TEXT -320 -152 Left 2 !.lib DMC3021LK4.lib
