Version 4.1
SHEET 1 1076 728
WIRE 528 -784 528 -832
WIRE 784 -608 784 -688
WIRE 528 -528 528 -704
WIRE 592 -528 528 -528
WIRE 656 -528 592 -528
WIRE 720 -528 656 -528
WIRE 736 -528 720 -528
WIRE 784 -480 784 -512
WIRE 528 -432 528 -528
WIRE 656 -352 656 -528
WIRE -144 -304 -144 -400
WIRE 528 -304 528 -352
WIRE 592 -304 528 -304
WIRE 784 -272 784 -480
WIRE 832 -272 784 -272
WIRE 912 -272 832 -272
WIRE 944 -272 912 -272
WIRE 1056 -272 1024 -272
WIRE 720 -240 720 -528
WIRE 528 -224 528 -304
WIRE -144 -176 -144 -224
WIRE -144 -128 -144 -176
WIRE 784 -112 784 -272
WIRE 784 -64 784 -112
WIRE 528 -48 528 -144
WIRE 576 -48 528 -48
WIRE 656 -48 656 -256
WIRE 656 -48 576 -48
WIRE 720 -48 720 -176
WIRE 720 -48 656 -48
WIRE 736 -48 720 -48
WIRE 528 0 528 -48
WIRE -144 48 -144 -48
WIRE 416 48 336 48
WIRE 464 48 416 48
WIRE 784 96 784 32
WIRE 528 176 528 96
FLAG -144 -400 VCC
FLAG -144 48 VEE
FLAG -144 -176 0
FLAG 1056 -272 0
FLAG 784 -688 VCC
FLAG 784 96 VEE
FLAG 528 -832 VCC
FLAG 528 176 VEE
FLAG 592 -528 GA_N
FLAG 576 -48 GA_P
FLAG 784 -480 TP_N
FLAG 784 -112 TP_P
FLAG 912 -208 0
FLAG 256 48 0
FLAG 416 48 Vin
FLAG 832 -272 Vout
SYMBOL voltage -144 -320 R0
WINDOW 123 0 0 Left 0
WINDOW 39 0 0 Left 0
SYMATTR InstName Vpola
SYMATTR Value 15
SYMBOL voltage -144 -144 R0
WINDOW 123 0 0 Left 0
WINDOW 39 0 0 Left 0
SYMATTR InstName Vpolb
SYMATTR Value 15
SYMBOL res 1040 -288 R90
WINDOW 0 0 56 VBottom 2
WINDOW 3 32 56 VTop 2
SYMATTR InstName RL1
SYMATTR Value 10
SYMBOL pnp 464 96 M180
SYMATTR InstName Q2
SYMATTR Value 2N3906
SYMBOL cap 896 -272 R0
WINDOW 0 -35 22 Left 2
WINDOW 3 -32 43 Left 2
SYMATTR InstName CL1
SYMATTR Value 1f
SYMBOL nmos_3021 736 -608 R0
SYMATTR InstName M1
SYMBOL pmos_3021 736 32 M180
SYMATTR InstName M2
SYMBOL current 528 -784 R0
WINDOW 123 0 0 Left 0
WINDOW 39 0 0 Left 0
SYMATTR InstName I1
SYMATTR Value 50m
SYMBOL Misc\\signal 352 48 R90
WINDOW 123 24 132 Left 2
WINDOW 39 0 0 Left 0
SYMATTR Value2 AC 1
SYMATTR InstName V3
SYMATTR Value SINE(-2.79V 10 1khz)
SYMBOL res 512 -448 R0
SYMATTR InstName R1
SYMATTR Value 115
SYMBOL res 512 -240 R0
SYMATTR InstName R2
SYMATTR Value 29.75
SYMBOL npn 592 -352 R0
SYMATTR InstName Q1
SYMATTR Value 2N3904
SYMBOL cap 704 -240 R0
SYMATTR InstName C1
SYMATTR Value 57µ
TEXT 496 376 Left 2 ;.op
TEXT 488 424 Left 2 ;.ac dec 101 1 10meg
TEXT 488 344 Left 2 !.tran .01
TEXT 760 256 Left 2 !.lib DMC3021LK4.lib
TEXT 688 368 Left 2 ;.dc I1 0m 100m 0.00001
