Version 4
SHEET 1 1288 892
WIRE 128 -16 128 -64
WIRE 384 32 384 -48
WIRE 128 112 128 64
WIRE 240 112 128 112
WIRE 336 112 240 112
WIRE 128 144 128 112
WIRE 128 144 -48 144
WIRE -48 208 -48 144
WIRE -448 288 -448 192
WIRE 128 288 128 144
WIRE -48 336 -48 288
WIRE 64 336 -48 336
WIRE 384 368 384 128
WIRE 448 368 384 368
WIRE 512 368 448 368
WIRE 544 368 512 368
WIRE 656 368 624 368
WIRE -48 400 -48 336
WIRE -448 416 -448 368
WIRE -192 432 -192 416
WIRE -448 464 -448 416
WIRE -192 544 -192 512
WIRE -48 544 -48 480
WIRE 128 544 128 384
WIRE 128 544 -48 544
WIRE 384 576 384 368
WIRE 128 592 128 544
WIRE 240 592 128 592
WIRE 336 592 240 592
WIRE -448 640 -448 544
WIRE 128 640 128 592
WIRE -192 688 -192 624
WIRE -128 688 -192 688
WIRE 64 688 -128 688
WIRE 384 736 384 672
WIRE 128 816 128 736
FLAG 656 368 0
FLAG 384 -48 VCC
FLAG 384 736 VEE
FLAG 128 -64 VCC
FLAG 128 816 VEE
FLAG 512 432 0
FLAG -448 192 VCC
FLAG -448 640 VEE
FLAG -448 416 0
FLAG -192 416 0
FLAG 448 368 Vout
FLAG -128 688 Vi
FLAG 240 592 Vtp
FLAG 240 112 Vtn
SYMBOL res 640 352 R90
WINDOW 0 0 56 VBottom 2
WINDOW 3 32 56 VTop 2
SYMATTR InstName RL
SYMATTR Value 10
SYMBOL pnp 64 736 M180
SYMATTR InstName Q8
SYMATTR Value 2N3906
SYMBOL cap 496 368 R0
WINDOW 0 -35 22 Left 2
WINDOW 3 -32 43 Left 2
SYMATTR InstName CL1
SYMATTR Value 1f
SYMBOL voltage -448 272 R0
WINDOW 123 0 0 Left 0
WINDOW 39 0 0 Left 0
SYMATTR InstName Vpola1
SYMATTR Value 15
SYMBOL voltage -448 448 R0
WINDOW 123 0 0 Left 0
WINDOW 39 0 0 Left 0
SYMATTR InstName Vpolb1
SYMATTR Value 15
SYMBOL current 128 -16 R0
SYMATTR InstName I2
SYMATTR Value 5m
SYMBOL nmos_3021 336 32 R0
SYMATTR InstName U1
SYMBOL pmos_3021 336 672 M180
SYMATTR InstName U2
SYMBOL Voltage -192 416 R0
SYMATTR InstName V1
SYMATTR Value 2.77
SYMBOL signal -192 528 R0
SYMATTR InstName V2
SYMATTR Value SINE(0 0 10k)
SYMBOL Res -64 192 R0
SYMATTR InstName Rpv1
SYMATTR Value 1200
SYMBOL Res -64 384 R0
SYMATTR InstName Rpv2
SYMATTR Value 280
SYMBOL npn 64 288 R0
SYMATTR InstName Q9
SYMATTR Value 2N3904
TEXT -280 200 Left 2 !.lib DMC3021LK4.lib
TEXT -272 240 Left 2 !;.dc i2 0 1 0.01
TEXT -272 280 Left 2 !.tran 0.1m
TEXT -264 312 Left 2 !.op
